# Define name of log file
#log            butane_C_stability.log
# Model system
units           real
atom_style      atomic
newton         on   ## off for Nequip

#read_data Butane.data
read_data       butane_nvt_equil.data  ##but1.data
Reading data file ...
  orthogonal box = (-20.000000 -20.000000 -20.000000) to (20.000000 20.000000 20.000000)
  reading atoms ...
  14 atoms
#group           mobile union all

#boundary        p p p
pair_style      allegro  ##nequip
pair_coeff      * * But_BD_SPC_500K_500Frames.pth C H
mass            1 12
mass            2 1.008

neighbor        2.0 bin
neigh_modify    every 1 delay 0 check yes

# Setup timestep
timestep        1

# Define thermo output
#thermo 1000
thermo          500
thermo_style    custom step time temp pe ke etotal press density #lx ly lz vol density

#Create initial velocity distribution
velocity	all create 500 432567 dist uniform

## Fix commands
fix 5 all plumed plumedfile plumed_but.dat outfile plumed.out # Use plumed to analyze CVs

fix 2 all nvt temp 500 500 100 ## iso 1.0 1.0 1000.0

# Define Dumping
#dump 1 all xyz 1000 water255_minimized.xyz
dump myDump2 all custom 500 forces.dump id type x y z fx fy fz
dump Dumpdcd all dcd 500 but_Boltz_CtC.dcd

restart 1000000 but_BD_dpmd.restart

#run 500
#run 5000000
run 2000000

CITE-CITE-CITE-CITE-CITE-CITE-CITE-CITE-CITE-CITE-CITE-CITE-CITE

Your simulation uses code contributions which should be cited:

- GPU package (short-range, long-range and three-body potentials):

@Article{Brown11,
 author = {W. M. Brown, P. Wang, S. J. Plimpton, A. N. Tharrington},
 title = {Implementing Molecular Dynamics on Hybrid High Performance Computers - Short Range Forces},
 journal = {Comp.~Phys.~Comm.},
 year =    2011,
 volume =  182,
 pages =   {898--911}
}

@Article{Brown12,
 author = {W. M. Brown, A. Kohlmeyer, S. J. Plimpton, A. N. Tharrington},
 title = {Implementing Molecular Dynamics on Hybrid High Performance Computers - Particle-Particle Particle-Mesh},
 journal = {Comp.~Phys.~Comm.},
 year =    2012,
 volume =  183,
 pages =   {449--459}
}

@Article{Brown13,
 author = {W. M. Brown, Y. Masako},
 title = {Implementing Molecular Dynamics on Hybrid High Performance Computers â€“ Three-Body Potentials},
 journal = {Comp.~Phys.~Comm.},
 year =    2013,
 volume =  184,
 pages =   {2785--2793}
}

@Article{Trung15,
 author = {T. D. Nguyen, S. J. Plimpton},
 title = {Accelerating dissipative particle dynamics simulations for soft matter systems},
 journal = {Comput.~Mater.~Sci.},
 year =    2015,
 volume =  100,
 pages =   {173--180}
}

@Article{Trung17,
 author = {T. D. Nguyen},
 title = {GPU-accelerated Tersoff potentials for massively parallel Molecular Dynamics simulations},
 journal = {Comp.~Phys.~Comm.},
 year =    2017,
 volume =  212,
 pages =   {113--122}
}

@Article{Nikolskiy19,
 author = {V. Nikolskiy, V. Stegailov},
 title = {GPU acceleration of four-site water models in LAMMPS},
 journal = {Proceeding of the International Conference on Parallel Computing (ParCo 2019), Prague, Czech Republic},
 year =    2019
}

CITE-CITE-CITE-CITE-CITE-CITE-CITE-CITE-CITE-CITE-CITE-CITE-CITE

  update every 1 steps, delay 0 steps, check yes
Step Time Temp PotEng KinEng TotEng Press Density
0            0          500   -17983.606    19.375265   -17964.231    82.859539 0.0015069391
Averages over the last 2001 of 4001 rows, steps 1000000 to 2000000:
Temp PotEng KinEng TotEng Press Density
500.34 -17982.6 19.3884 -17963.2 -0.179448 0.00150694
Loop time of 34246.1 on 1 procs for 2000000 steps with 14 atoms

# SAfe minimized data file
#write_data butane_nvt_equil.data
